28

H        -4.785668   -1.686810    0.594957
C        -3.807805   -1.578838    0.102949
C        -2.903763   -0.603685    0.875267
H        -3.341369   -2.573942    0.048336
H        -3.981902   -1.228152   -0.927083
C        -1.535359   -0.426156    0.195919
H        -2.736696   -0.980929    1.896522
H        -3.402508    0.377946    0.965455
C        -0.642609    0.511453    1.015844
H        -1.659515   -0.030263   -0.826534
H        -1.041952   -1.408265    0.123962
N         0.719515    0.641733    0.439122
H        -0.520605    0.100489    2.028607
H        -1.057877    1.527038    1.065504
C         1.576335   -0.384546    0.302028
C         1.339992    1.803459    0.001151
N         2.725862    0.091936   -0.210564
H         1.383908   -1.449295    0.500509
C         2.603677    1.461498   -0.406718
H         0.838267    2.762755    0.018151
C         3.905153   -0.743217   -0.478451
H         3.408253    2.062876   -0.811178
H         4.738485   -0.414443    0.154797
H         3.646733   -1.782227   -0.239592
H         4.183163   -0.659567   -1.536169
S         1.095318   -3.731649    0.727006
C         0.442405   -2.833947    1.964760
N        -0.004743   -2.110455    2.795287
