26

  H        -4.944285   -1.466836    0.142265
  C        -3.973538   -1.239208   -0.322097
  C        -3.010954   -0.587669    0.685333
  H        -3.550139   -2.178228   -0.708868
  H        -4.155631   -0.572054   -1.179696
  C        -1.635561   -0.302409    0.060475
  H        -2.873897   -1.256154    1.551171
  H        -3.451880    0.348850    1.070383
  C        -0.706799    0.421835    1.044517
  H        -1.762755    0.310445   -0.848138
  H        -1.146399   -1.247005   -0.226725
  N         0.659602    0.561023    0.502193
  H        -0.612872   -0.170287    1.963836
  H        -1.086899    1.421102    1.303457
  C         1.742063   -0.051669    1.031355
  C         1.003238    1.055802   -0.752730
  N         2.790733    0.136597    0.195808
  H         1.799364   -0.485113    2.018343
  C         2.328211    0.783293   -0.946660
  H         0.284184    1.551987   -1.390687
  C         4.050585   -0.598956    0.324972
  H         2.979824    0.998792   -1.783666
  H         4.454107   -0.463005    1.334964
  H         3.834127   -1.667519    0.156693
  H         4.764795   -0.212436   -0.409572
  I         1.158431   -3.070042    0.811688