25

C        -1.420164   -0.955276   -0.250260
C        -2.768189   -0.564802   -0.503282
C        -3.242341    0.644087   -0.045230
C        -2.391723    1.489547    0.723408
C        -1.122491    1.052844    1.019007
H        -4.265706    0.953452   -0.262334
H        -1.113143   -1.990242   -0.331980
H        -3.379020   -1.231241   -1.108400
H        -2.727639    2.456119    1.095202
H        -0.422979    1.632990    1.617402
N        -0.671384   -0.174316    0.601604
C         0.727216   -0.567756    0.907833
C         1.762161    0.376735    0.275331
H         0.865740   -1.581925    0.516614
H         0.837249   -0.594165    2.002918
C         3.196369   -0.138645    0.484498
H         1.668320    1.380702    0.722562
H         1.533029    0.460950   -0.797548
C         4.249996    0.880354    0.017606
H         3.320342   -1.083630   -0.069903
H         3.359024   -0.373288    1.551547
H         5.270022    0.486134    0.137757
H         4.104390    1.134005   -1.043557
H         4.176973    1.813664    0.598416
Cl       -0.357801   -0.828488   -2.416055
