49

C        -0.925550   -1.487490   -1.326631
C        -2.229169   -1.883526   -1.589931
C        -3.199066   -0.910157   -1.855130
C        -2.832081    0.439237   -1.839998
C        -1.514171    0.781466   -1.567789
H        -4.234041   -1.198364   -2.040624
H        -0.133492   -2.185975   -1.071517
H        -2.478011   -2.942226   -1.547736
H        -3.560457    1.232091   -1.998947
H        -1.173980    1.810842   -1.496971
N        -0.581820   -0.174650   -1.335476
C         0.833884    0.206396   -1.050866
C         1.742444   -0.042820   -2.258100
H         1.140117   -0.369308   -0.172136
H         0.827468    1.258919   -0.752466
C         3.201470    0.322751   -1.932407
H         1.387448    0.547173   -3.119449
H         1.683823   -1.105090   -2.549113
C         4.141374    0.062493   -3.119596
H         3.532624   -0.258768   -1.056382
H         3.252954    1.384094   -1.638212
H         5.177593    0.330131   -2.868959
H         4.126005   -1.000072   -3.407523
H         3.840550    0.654228   -3.997973
P        -1.247902   -0.075118    2.238499
C         0.440066    0.238672    3.375236
F        -0.225188   -1.154070    1.429722
C        -1.971218   -1.592262    3.348993
F        -0.725508    1.160359    1.231040
C        -2.484656    1.284232    3.059462
F        -2.421388   -0.450336    1.116796
C         0.578266    1.247106    4.583193
C        -3.764383    1.704002    2.227617
C        -1.614179   -3.069879    2.910403
F        -0.302157   -3.358931    3.038981
F        -1.983932   -3.308759    1.617182
F        -2.305666   -3.948682    3.692145
F        -3.350853   -1.555376    3.294001
F        -1.621381   -1.495754    4.673102
F        -1.799158    2.466199    3.241665
F        -2.959162    0.904134    4.291197
F        -4.384948    2.745074    2.854619
F        -4.668125    0.708403    2.112492
F        -3.429014    2.135684    0.976276
F         1.736869    0.991060    5.261246
F        -0.442765    1.125200    5.459849
F         0.649424    2.530205    4.155566
F         1.443000    0.629725    2.494854
F         0.831121   -0.981600    3.872211
