39

C        -1.852919   -1.472534    0.267524
C        -3.077097   -1.722067   -0.339156
C        -3.845915   -0.644430   -0.795881
C        -3.374378    0.658961   -0.607205
C        -2.145087    0.857274    0.010709
H        -4.809103   -0.820232   -1.276803
H        -1.215896   -2.256252    0.667514
H        -3.420230   -2.750905   -0.436445
H        -3.956654    1.526500   -0.913183
H        -1.737996    1.839341    0.239790
N        -1.395575   -0.202331    0.408391
C        -0.041794    0.037271    0.989409
C         1.022833    0.104938   -0.112537
H         0.141127   -0.765303    1.711588
H        -0.102071    0.978528    1.543793
C         2.406873    0.428962    0.475819
H         0.738287    0.885526   -0.838612
H         1.056747   -0.851427   -0.662227
C         3.485468    0.549798   -0.612805
H         2.686708   -0.355637    1.197986
H         2.341983    1.369563    1.046472
H         4.465612    0.783947   -0.173319
H         3.583263   -0.388568   -1.180902
H         3.235598    1.350091   -1.327064
S        -2.432264   -0.244411    3.606840
O        -3.474098    0.269369    2.720857
O        -1.827902   -1.540654    3.301886
N        -1.257750    0.780962    3.955521
S        -1.410200    2.370850    3.730798
O        -1.161451    2.770709    2.338130
O        -2.482880    3.035082    4.448425
C        -3.345847   -0.556914    5.257143
F        -4.000330    0.552766    5.668576
F        -4.258815   -1.554330    5.068549
F        -2.478284   -0.944040    6.227111
C         0.199297    2.865579    4.627693
F         0.318402    4.219244    4.549734
F         1.290684    2.303472    4.032016
F         0.180225    2.504027    5.930707
