33

C         1.020653   -0.211990    0.922375
H         1.394754    0.039219    1.926890
H         0.437192   -1.146193    0.953173
C         2.179802   -0.353682   -0.062980
H         1.803478   -0.684949   -1.042331
H         2.704968    0.603682   -0.218365
C         3.191190   -1.393326    0.461319
H         3.539497   -1.089422    1.463549
H         2.678092   -2.360206    0.582214
C         4.398726   -1.551310   -0.475498
H         4.935225   -0.596061   -0.592987
H         5.110413   -2.292389   -0.084026
H         4.079260   -1.883818   -1.474956
N        -0.007179    0.876927    0.592352
C        -0.574637    0.740243   -0.848295
C         0.011646    1.920975   -1.618619
C         0.047797    3.031793   -0.552414
C         0.600376    2.288496    0.666021
H        -0.332861   -0.260055   -1.217062
H        -1.669182    0.795607   -0.766061
H        -0.612111    2.173517   -2.486078
H         1.029084    1.696788   -1.974766
H        -0.969345    3.402724   -0.352659
H         0.681042    3.887783   -0.821856
H         0.342924    2.727442    1.636844
H         1.689202    2.186934    0.598437
H        -1.645413   -0.197958    1.435825
C        -1.132407    0.756416    1.596301
H        -0.703456    0.812887    2.604463
H        -1.834820    1.581280    1.429964
S        -3.671733   -1.209004   -0.259686
C        -2.184510   -1.927996   -0.193528
N        -1.080237   -2.375842   -0.138461
