31

C        -0.334613    1.559731    1.874883
H        -0.245604    2.622471    1.604152
H        -1.344163    1.400342    2.281177
C         0.714751    1.197730    2.927651
H         0.531428    0.182093    3.308684
H         1.723396    1.205275    2.485763
C         0.660856    2.194108    4.103506
H         0.896917    3.206006    3.733237
H        -0.368364    2.238347    4.498777
C         1.631802    1.815922    5.234017
H         2.669019    1.779370    4.866050
H         1.589396    2.545749    6.055456
H         1.387938    0.825197    5.647900
N        -0.288748    0.801100    0.551733
C        -0.377728   -0.722716    0.729561
C         1.062413   -1.224403    0.854532
C         1.902800   -0.238816   -0.002293
C         1.043844    1.027241   -0.197176
H        -1.031036   -0.929079    1.588666
H        -0.806000   -1.094937   -0.215010
H         1.122224   -2.245843    0.455962
H         1.406841   -1.243221    1.896599
H         2.072355   -0.672051   -0.996562
H         2.865720   -0.011447    0.476745
H         0.777018    1.122523   -1.258094
H         1.488765    1.952497    0.191858
H        -2.381901    1.046841    0.239879
C        -1.452122    1.280598   -0.293629
H        -1.356790    2.365068   -0.428241
H        -1.392959    0.744561   -1.260033
Cl       -0.263468   -0.825307   -2.634999
