35

C         1.464569    1.416712    2.169875
H         1.177672    2.326896    2.712415
H         2.516222    1.191326    2.403336
C         1.271354    1.593049    0.664032
H         1.650798    0.717876    0.110154
H         0.207637    1.725167    0.420087
C         2.016448    2.857884    0.191927
H         1.596228    3.725651    0.724155
H         3.083415    2.788331    0.467297
C         1.873612    3.067583   -1.323446
H         0.812825    3.177091   -1.593329
H         2.403974    3.974789   -1.647670
H         2.287430    2.213965   -1.884795
N         0.649848    0.292812    2.828776
C         0.839708   -1.057749    2.111779
C        -0.468254   -1.308580    1.359907
C        -1.513869   -0.734268    2.335802
C        -0.874333    0.584753    2.770506
H         1.740169   -1.006597    1.490413
H         0.987831   -1.814749    2.892961
H        -0.606529   -2.376575    1.144011
H        -0.483255   -0.751881    0.412015
H        -1.657246   -1.414050    3.191076
H        -2.490891   -0.558046    1.867614
H        -1.177468    0.976605    3.746992
H        -1.034610    1.365171    2.018223
H         2.142584   -0.131343    4.288663
C         1.091967    0.184605    4.270903
H         0.953036    1.167219    4.745499
H         0.464818   -0.566518    4.766814
N        -0.789940    4.418727    3.013178
C        -0.466261    3.667813    4.033270
C        -1.181665    3.893805    1.874609
N        -1.526510    3.493897    0.814332
N        -0.132456    3.052653    4.991631
